LTspice 24.1.6 for Windows
Circuit: Z:\home\marcosgatica\facultadUTN\dispositivosElectronicos\trabajosPracticos\tp1\simulacion.net
Start Time: Sun Apr  6 04:15:35 2025
solver = Normal
Maximum thread count: 12
tnom = 27
temp = 27
method = trap
Direct Newton iteration for .op point succeeded.
Total elapsed time: 0.111 seconds.

Files loaded:
Z:\home\marcosgatica\facultadUTN\dispositivosElectronicos\trabajosPracticos\tp1\simulacion.net

